[General]
sim-time-limit = 600s
network = uavminedetection.UAVMineDetection
warmup-period  = 30s
repeat         = 1

*.uav[*].hasStatus = true
*.gcs.hasStatus    = true

*.visualizer.typename = "IntegratedOsgVisualizer"
*.visualizer.mobilityVisualizer.displayMovementTrails   = true
*.visualizer.mobilityVisualizer.movementTrailLineColor  = "blue"
*.visualizer.mobilityVisualizer.movementTrailLineWidth  = 2
*.visualizer.mobilityVisualizer.displayVelocities       = true
*.visualizer.mobilityVisualizer.displayOrientations     = true
*.visualizer.dataLinkVisualizer.displayLinks            = true
*.visualizer.dataLinkVisualizer.lineColor               = "green"
*.visualizer.mediumVisualizer.displaySignals            = true

*.uav[*].wlan[0].typename                               = "Ieee80211Interface"
*.uav[*].wlan[0].radio.typename                        = "Ieee80211ScalarRadio"
*.uav[*].wlan[0].radio.centerFrequency                 = 5.9GHz
*.uav[*].wlan[0].radio.bandwidth                       = 10MHz
*.uav[*].wlan[0].radio.transmitter.power               = 100mW
*.uav[*].wlan[0].radio.receiver.sensitivity            = -95dBm
*.uav[*].wlan[0].radio.receiver.snirThreshold          = 4dB

*.gcs.wlan[0].typename                                 = "Ieee80211Interface"
*.gcs.wlan[0].radio.typename                           = "Ieee80211ScalarRadio"
*.gcs.wlan[0].radio.centerFrequency                    = 5.9GHz
*.gcs.wlan[0].radio.bandwidth                          = 10MHz
*.gcs.wlan[0].radio.transmitter.power                  = 100mW
*.gcs.wlan[0].radio.receiver.sensitivity               = -95dBm
*.gcs.wlan[0].radio.receiver.snirThreshold             = 4dB

*.uav[*].mobility.typename              = "LawnmowerMobility"
*.uav[*].mobility.speed                 = 20mps
*.uav[*].mobility.rowCount              = 20
*.uav[*].mobility.y1                    = 0m
*.uav[*].mobility.y2                    = 1000m
*.uav[*].mobility.altitude              = 80m
*.uav[*].mobility.constraintAreaMinX    = 0m
*.uav[*].mobility.constraintAreaMinY    = 0m
*.uav[*].mobility.constraintAreaMaxX    = 1000m
*.uav[*].mobility.constraintAreaMaxY    = 1000m

*.gcs.mobility.typename    = "StationaryMobility"
*.gcs.mobility.initialX    = 500m
*.gcs.mobility.initialY    = 950m
*.gcs.mobility.initialZ    = 0m

*.uav[0].mobility.x1  = 0m
*.uav[0].mobility.x2  = 100m
*.uav[1].mobility.x1  = 100m
*.uav[1].mobility.x2  = 200m
*.uav[2].mobility.x1  = 200m
*.uav[2].mobility.x2  = 300m
*.uav[3].mobility.x1  = 300m
*.uav[3].mobility.x2  = 400m
*.uav[4].mobility.x1  = 400m
*.uav[4].mobility.x2  = 500m
*.uav[5].mobility.x1  = 500m
*.uav[5].mobility.x2  = 600m
*.uav[6].mobility.x1  = 600m
*.uav[6].mobility.x2  = 700m
*.uav[7].mobility.x1  = 700m
*.uav[7].mobility.x2  = 800m
*.uav[8].mobility.x1  = 800m
*.uav[8].mobility.x2  = 900m
*.uav[9].mobility.x1  = 900m
*.uav[9].mobility.x2  = 1000m

*.uav[*].energyStorage.typename                                          = "SimpleEpEnergyStorage"
*.uav[*].energyStorage.nominalCapacity                                   = 3600J
*.uav[*].energyStorage.initialCapacity                                   = 3600J

*.uav[*].wlan[0].radio.energyConsumer.typename                           = "Ieee80211StateBasedEpEnergyConsumer"
*.uav[*].wlan[0].radio.energyConsumer.offPowerConsumption                = 0mW
*.uav[*].wlan[0].radio.energyConsumer.sleepPowerConsumption              = 1mW
*.uav[*].wlan[0].radio.energyConsumer.receiverIdlePowerConsumption       = 2mW
*.uav[*].wlan[0].radio.energyConsumer.receiverReceivingPowerConsumption  = 10mW
*.uav[*].wlan[0].radio.energyConsumer.transmitterIdlePowerConsumption    = 2mW
*.uav[*].wlan[0].radio.energyConsumer.transmitterTransmittingPowerConsumption = 100mW

*.uav[*].numApps = 1
*.uav[*].app[0].typename              = "uavminedetection.MineDetectionApp"
*.uav[*].app[0].uavId                 = ancestorIndex(1)
*.uav[*].app[0].magneticThreshold     = 250
*.uav[*].app[0].magneticSaturation    = 2000
*.uav[*].app[0].confirmRadius         = 30m
*.uav[*].app[0].confirmationTimeout   = 10s
*.uav[*].app[0].falseAlarmProb        = 0.0001
*.uav[*].app[0].falseAlarmDisplayLimit = 30
*.uav[*].app[0].scanInterval          = 0.5s
*.uav[*].app[0].destPort              = 5555
*.uav[*].app[0].localPort             = 5555

*.uav[*].app[0].adaptiveWindowSize    = 100
*.uav[*].app[0].adaptiveKSigma        = 2.5
*.uav[*].app[0].adaptiveMinThreshold  = 250

*.uav[*].app[0].sensorNoiseAlpha    = 0.8
*.uav[*].app[0].sensorNoiseScale    = 2.0

*.mineField.magneticConstant  = 100000000
*.mineField.backgroundNoise   = 220
*.mineField.noiseVariation    = 2
*.mineField.minDepth          = 0.05
*.mineField.maxDepth          = 0.40
*.mineField.soilAttenuation   = 1.5

*.uav[*].app[0].returnHomeEnergyThreshold = 0.3
*.uav[*].app[0].energyPerMeter = 0.21

*.gcs.numApps = 1
*.gcs.app[0].typename   = "uavminedetection.GcsApp"
*.gcs.app[0].localPort  = 5555
*.gcs.app[0].destPort   = 5555

**.scalar-recording = true
**.vector-recording = true