[General]
network = uavminedetection.UAVMineDetection
sim-time-limit = 600s
warmup-period  = 10s
repeat         = 3

# =============================================
# حالة الطائرات (مطلوب لـ SimpleEpEnergyStorage)
# =============================================
*.uav[*].hasStatus = true
*.gcs.hasStatus    = true

# =============================================
# التصور المرئي
# =============================================
*.visualizer.*.mobilityVisualizer.displayMovementTrails   = true
*.visualizer.*.mobilityVisualizer.movementTrailLineColor  = "blue"
*.visualizer.*.mobilityVisualizer.movementTrailLineWidth  = 2

# =============================================
# الراديو IEEE 802.11
# =============================================
*.uav[*].wlan[0].typename                               = "Ieee80211Interface"
*.uav[*].wlan[0].radio.typename                        = "Ieee80211ScalarRadio"
*.uav[*].wlan[0].radio.centerFrequency                 = 5.9GHz
*.uav[*].wlan[0].radio.bandwidth                       = 10MHz
*.uav[*].wlan[0].radio.transmitter.power               = 20mW
*.uav[*].wlan[0].radio.receiver.sensitivity            = -90dBm
*.uav[*].wlan[0].radio.receiver.snirThreshold          = 4dB

*.gcs.wlan[0].typename                                 = "Ieee80211Interface"
*.gcs.wlan[0].radio.typename                           = "Ieee80211ScalarRadio"
*.gcs.wlan[0].radio.centerFrequency                    = 5.9GHz
*.gcs.wlan[0].radio.transmitter.power                  = 20mW
*.gcs.wlan[0].radio.receiver.sensitivity               = -90dBm

# =============================================
# بروتوكول التوجيه AODV
# =============================================
*.uav[*].routingApp.typename = "AODV"
*.gcs.routingApp.typename    = "AODV"

# =============================================
# نموذج الحركة Lawnmower — تغطية شرائط 1000×1000
# =============================================
*.uav[*].mobility.typename              = "LawnmowerMobility"
*.uav[*].mobility.speed                 = 20mps
*.uav[*].mobility.rowCount              = 10
*.uav[*].mobility.y1                    = 0m
*.uav[*].mobility.y2                    = 1000m
*.uav[*].mobility.altitude              = 80m
*.uav[*].mobility.constraintAreaMinX    = 0m
*.uav[*].mobility.constraintAreaMinY    = 0m
*.uav[*].mobility.constraintAreaMinZ    = 80m
*.uav[*].mobility.constraintAreaMaxX    = 1000m
*.uav[*].mobility.constraintAreaMaxY    = 1000m
*.uav[*].mobility.constraintAreaMaxZ    = 80m

# محطة الأرض ثابتة في المنتصف
*.gcs.mobility.typename    = "StationaryMobility"
*.gcs.mobility.initialX    = 500m
*.gcs.mobility.initialY    = 950m
*.gcs.mobility.initialZ    = 0m

# =============================================
# تقسيم المنطقة إلى 10 شرائط عرض 100م
# =============================================
*.uav[0].mobility.x1  = 0m
*.uav[0].mobility.x2  = 100m

*.uav[1].mobility.x1  = 100m
*.uav[1].mobility.x2  = 200m

*.uav[2].mobility.x1  = 200m
*.uav[2].mobility.x2  = 300m

*.uav[3].mobility.x1  = 300m
*.uav[3].mobility.x2  = 400m

*.uav[4].mobility.x1  = 400m
*.uav[4].mobility.x2  = 500m

*.uav[5].mobility.x1  = 500m
*.uav[5].mobility.x2  = 600m

*.uav[6].mobility.x1  = 600m
*.uav[6].mobility.x2  = 700m

*.uav[7].mobility.x1  = 700m
*.uav[7].mobility.x2  = 800m

*.uav[8].mobility.x1  = 800m
*.uav[8].mobility.x2  = 900m

*.uav[9].mobility.x1  = 900m
*.uav[9].mobility.x2  = 1000m

# =============================================
# نموذج الطاقة
# =============================================
*.uav[*].energyStorage.typename                                          = "SimpleEpEnergyStorage"
*.uav[*].energyStorage.nominalCapacity                                   = 3600J
*.uav[*].energyStorage.initialCapacity                                   = 3600J

*.uav[*].wlan[0].radio.energyConsumer.typename                           = "Ieee80211StateBasedEpEnergyConsumer"
*.uav[*].wlan[0].radio.energyConsumer.offPowerConsumption                = 0mW
*.uav[*].wlan[0].radio.energyConsumer.sleepPowerConsumption              = 1mW
*.uav[*].wlan[0].radio.energyConsumer.receiverIdlePowerConsumption       = 2mW
*.uav[*].wlan[0].radio.energyConsumer.receiverReceivingPowerConsumption  = 10mW
*.uav[*].wlan[0].radio.energyConsumer.transmitterIdlePowerConsumption    = 2mW
*.uav[*].wlan[0].radio.energyConsumer.transmitterTransmittingPowerConsumption = 100mW

# =============================================
# تطبيق الكشف بالحساس المغناطيسي
# =============================================
*.numUAVs = 10
*.uav[*].numApps = 2

*.uav[*].app[0].typename              = "MineDetectionApp"
*.uav[*].app[0].uavId                 = index()

# ── معاملات الحساس المغناطيسي ──────────────
# الخلفية الطبيعية ≈ 220 nT
# مع k=75000:
# عند d=50م: 75000/2501 ≈ 30 → مع الخلفية ≈ 250 nT (ضمن العتبة)
# عند d=40م: 75000/1601 ≈ 47 → مع الخلفية ≈ 267 nT
*.uav[*].app[0].magneticThreshold     = 240      # العتبة (nT) لكشف ~50م من خط المسح
*.uav[*].app[0].magneticSaturation    = 2000     # تشبع الحساس (nT)
*.uav[*].app[0].confirmRadius         = 50m      # نصف تباعد الصفوف لضمان اكتشاف جميع الألغام
*.uav[*].app[0].falseAlarmProb        = 0.0005   # تقليل الضوضاء القوية (إنذارات كاذبة أقل)
*.uav[*].app[0].scanInterval          = 0.5s
*.uav[*].app[0].destPort              = 5555
*.uav[*].app[0].localPort             = 4000

# ── معاملات MineField ──────────────────────
*.mineField.magneticConstant  = 75000   # ثابت المجال (nT·m²) لزيادة مدى الاكتشاف
*.mineField.backgroundNoise   = 220     # ضوضاء الخلفية (nT)
*.mineField.noiseVariation    = 10      # تذبذب الضوضاء ± (nT) لتقليل الإنذارات الكاذبة

# Heartbeat للشبكة
*.uav[*].app[1].typename       = "UdpBasicApp"
*.uav[*].app[1].destAddresses  = "gcs"
*.uav[*].app[1].destPort       = 5556
*.uav[*].app[1].messageLength  = 64B
*.uav[*].app[1].sendInterval   = exponential(5s)
*.uav[*].app[1].startTime      = uniform(0s, 2s)

# GCS يستقبل على منفذين
*.gcs.numApps         = 2
*.gcs.app[0].typename = "UdpSink"
*.gcs.app[0].localPort = 5555
*.gcs.app[1].typename = "UdpSink"
*.gcs.app[1].localPort = 5556

# =============================================
# تسجيل الإحصاءات
# =============================================
**.scalar-recording = true
**.vector-recording = true
